tests/data/power_flow/pandapower/components/asymmetric/shunt/asym_output.json
{
  "version": "1.0",
  "type": "asym_output",
  "is_batch": false,
  "attributes": {},
  "data": {
    "line": [
      {
        "id": 3,
        "p_from": [
          368.05037879616975,
          368.0503787961712,
          368.0503787961692
        ],
        "q_from": [
          -14485.721806025253,
          -14485.721806025253,
          -14485.721806025253
        ],
        "i_from": [
          2.3902955575249414,
          2.390295557524941,
          2.3902955575249414
        ],
        "p_to": [
          -367.5330140319739,
          -367.5330140319734,
          -367.5330140319741
        ],
        "q_to": [
          2940.2641124078064,
          2940.2641124078054,
          2940.2641124078054
        ],
        "i_to": [
          0.4887703541879859,
          0.4887703541879859,
          0.4887703541879859
        ]
      }
    ],
    "node": [
      {
        "id": 1,
        "u_pu": [
          1.0,
          0.9999999999999999,
          0.9999999999999999
        ],
        "u": [
          6062.177826491071,
          6062.17782649107,
          6062.17782649107
        ],
        "u_angle": [
          0.0,
          -2.0943951023931953,
          2.0943951023931953
        ]
      },
      {
        "id": 2,
        "u_pu": [
          1.0000449160668132,
          1.0000449160668132,
          1.0000449160668132
        ],
        "u": [
          6062.450115675359,
          6062.450115675359,
          6062.450115675359
        ],
        "u_angle": [
          -6.127266021144524e-05,
          -2.0944563750534066,
          2.0943338297329843
        ]
      }
    ]
  }
}
